THERMO ALL
   300.000  1000.000  5000.000

H                 120186H   1               G  0300.00   5000.00  1000.00      1
 0.02500000E+02 0.00000000E+00 0.00000000E+00 0.00000000E+00 0.00000000E+00    2
 0.02547163E+06-0.04601176E+01 0.02500000E+02 0.00000000E+00 0.00000000E+00    3
 0.00000000E+00 0.00000000E+00 0.02547163E+06-0.04601176E+01                   4
H2                121286H   2               G  0300.00   5000.00  1000.00      1
 0.02991423E+02 0.07000644E-02-0.05633829E-06-0.09231578E-10 0.01582752E-13    2
-0.08350340E+04-0.01355110E+02 0.03298124E+02 0.08249442E-02-0.08143015E-05    3
-0.09475434E-09 0.04134872E-11-0.01012521E+05-0.03294094E+02                   4
O                 120186O   1               G  0300.00   5000.00  1000.00      1
 0.02542060E+02-0.02755062E-03-0.03102803E-07 0.04551067E-10-0.04368052E-14    2
 0.02923080E+06 0.04920308E+02 0.02946429E+02-0.01638166E-01 0.02421032E-04    3
-0.01602843E-07 0.03890696E-11 0.02914764E+06 0.02963995E+02                   4
O2                121386O   2               G  0300.00   5000.00  1000.00      1
 0.03697578E+02 0.06135197E-02-0.01258842E-05 0.01775281E-09-0.01136435E-13    2
-0.01233930E+05 0.03189166E+02 0.03212936E+02 0.01127486E-01-0.05756150E-05    3
 0.01313877E-07-0.08768554E-11-0.01005249E+05 0.06034738E+02                   4
OH         7/13/ 0 RUCICH   1O   1    0    0G   300.000  5000.000 1710.000    01
 2.85376040E+00 1.02994334E-03-2.32666477E-07 1.93750704E-11-3.15759847E-16    2
 3.69949720E+03 5.78756825E+00 3.41896226E+00 3.19255801E-04-3.08292717E-07    3
 3.64407494E-10-1.00195479E-13 3.45264448E+03 2.54433372E+00                   4
H2O                20387H   2O   1          G  0300.00   5000.00  1000.00      1
 0.02672146E+02 0.03056293E-01-0.08730260E-05 0.01200996E-08-0.06391618E-13    2
-0.02989921E+06 0.06862817E+02 0.03386842E+02 0.03474982E-01-0.06354696E-04    3
 0.06968581E-07-0.02506588E-10-0.03020811E+06 0.02590233E+02                   4
N2                121286N   2               G  0300.00   5000.00  1000.00      1
 0.02926640E+02 0.01487977E-01-0.05684761E-05 0.01009704E-08-0.06753351E-13    2
-0.09227977E+04 0.05980528E+02 0.03298677E+02 0.01408240E-01-0.03963222E-04    3
 0.05641515E-07-0.02444855E-10-0.01020900E+05 0.03950372E+02                   4
HO2               L 5/89H   1O   2          G   200.000  3500.000  1000.000    1
 4.01721090E+00 2.23982013E-03-6.33658150E-07 1.14246370E-10-1.07908535E-14    2
 1.11856713E+02 3.78510215E+00 4.30179801E+00-4.74912051E-03 2.11582891E-05    3
-2.42763894E-08 9.29225124E-12 2.94808040E+02 3.71666245E+00                   4
H2O2              120186H   2O   2          G  0300.00   5000.00  1000.00      1
 0.04573167E+02 0.04336136E-01-0.01474689E-04 0.02348904E-08-0.01431654E-12    2
-0.01800696E+06 0.05011370E+01 0.03388754E+02 0.06569226E-01-0.01485013E-05    3
-0.04625806E-07 0.02471515E-10-0.01766315E+06 0.06785363E+02                   4
CO        29/11/04      C   1O   1    0    0G   300.000  5000.000 1429.000     1
 3.11216890E+00 1.15948283E-03-3.38480362E-07 4.41403098E-11-2.12862228E-15    2
-1.42718539E+04 5.71725177E+00 3.19036352E+00 8.94419972E-04-3.24927563E-08    3
-1.04599967E-10 2.41965693E-14-1.42869054E+04 5.33277914E+00                   4
CO2       29/11/04      C   1O   2    0    0G   300.000  5000.000 1380.000     1
 5.18953018E+00 2.06006476E-03-7.33575324E-07 1.17004374E-10-6.91729215E-15    2
-4.93178953E+04-5.18289303E+00 2.57930490E+00 8.24684987E-03-6.42716047E-06    3
 2.54637024E-09-4.12030443E-13-4.84162830E+04 8.81141041E+00                   4
CH2O       6/29/04 RUSCIC   1H   2O   1    0G   300.000  5000.000 1486.000    01
 4.02068394E+00 5.09903417E-03-1.76430480E-06 2.76025879E-10-1.60998042E-14    2
-1.49287258E+04 1.06525547E+00 3.00754197E+00 3.04729496E-03 5.25109246E-06    3
-5.12019281E-09 1.27133795E-12-1.41188397E+04 8.10120233E+00                   4
HCO       29/11/04      H   1C   1O   1    0G   300.000  5000.000 1690.000     1
 3.44148164E+00 3.52157719E-03-1.24136118E-06 1.97328644E-10-1.16538616E-14    2
 3.97409684E+03 6.24593456E+00 3.81049965E+00 8.13269825E-04 3.13164701E-06    3
-2.39478268E-09 5.06894554E-13 4.03859901E+03 4.94843165E+00                   4
HO2CHO     6/26/95 THERMC   1H   2O   3     G   300.000  5000.000 1378.00     21
 9.87503878E+00 4.64663708E-03-1.67230522E-06 2.68624413E-10-1.59595232E-14    2
-3.80502496E+04-2.24939155E+01 2.42464726E+00 2.19706380E-02-1.68705546E-05    3
 6.25612194E-09-9.11645843E-13-3.54828006E+04 1.75027796E+01                   4
O2CHO      6/26/95 THERMC   1H   1O   3     G   300.000  5000.000 1368.00     11
 7.24075139E+00 4.63312951E-03-1.63693995E-06 2.59706693E-10-1.52964699E-14    2
-1.87027618E+04-6.49547212E+00 3.96059309E+00 1.06002279E-02-5.25713351E-06    3
 1.01716726E-09-2.87487602E-14-1.73599383E+04 1.17807483E+01                   4
HOCHO      4/ 9/98 THERMC   1H   2O   2     G   300.000  5000.000 1376.000    11
 6.68733013E+00 5.14289368E-03-1.82238513E-06 2.89719163E-10-1.70892199E-14    2
-4.83995400E+04-1.13104798E+01 1.43548185E+00 1.63363016E-02-1.06257421E-05    3
 3.32132977E-09-4.02176103E-13-4.64616504E+04 1.72885798E+01                   4
OCHO       2/14/95 THERMC   1H   1O   2     G   300.000  5000.000 1690.00     01
 6.12628782E+00 3.75602932E-03-1.42010352E-06 2.36429200E-10-1.44167651E-14    2
-2.17698466E+04-8.01574694E+00 1.35213452E+00 1.50082004E-02-1.09896141E-05    3
 3.73679840E-09-4.81014498E-13-2.02253647E+04 1.74373147E+01                   4
HOCH2O     4/ 9/98 THERMC   1H   3O   2     G   300.000  5000.000 1452.000    11
 6.39521515E+00 7.43673043E-03-2.50422354E-06 3.84879712E-10-2.21778689E-14    2
-2.25557758E+04-6.63865583E+00 4.11183145E+00 7.53850697E-03 3.77337370E-06    3
-5.38746005E-09 1.45615887E-12-2.12471918E+04 7.46807254E+00                   4
CH3OH      2/25/ 4 THERMC   1H   4O   1    0G   300.000  5000.000 1985.000    11
 3.92867513E+00 9.81626074E-03-3.40615476E-06 5.35510197E-10-3.13776029E-14    2
-2.61454175E+04 2.69464483E+00 1.82176844E+00 1.23326420E-02-2.73742177E-06    3
-1.07387318E-09 4.23644837E-13-2.52222207E+04 1.48104300E+01                   4
CH2OH      2/25/ 4 THERMC   1H   3O   1    0G   300.000  5000.000 1399.000    11
 5.41875913E+00 5.66185244E-03-1.87471136E-06 2.84441938E-10-1.62299798E-14    2
-3.61475540E+03-3.49277963E+00 3.05674228E+00 1.19335634E-02-8.72501303E-06    3
 3.82781054E-09-7.22887951E-13-2.83140190E+03 8.98878133E+00                   4
CH3O       8/ 9/ 4 THERMC   1H   3O   1    0G   300.000  5000.000 1509.000    01
 4.64787019E+00 6.90830683E-03-2.34404776E-06 3.61994570E-10-2.09253541E-14    2
-2.99208881E+02-1.57740193E+00 2.23058023E+00 8.53178586E-03 1.02166624E-06    3
-3.41046916E-09 9.94691038E-13 9.45939708E+02 1.28377569E+01                   4
CH3O2H     1/14/ 5 THERMC   1H   4O   2    0G   300.000  5000.000 1367.000    21
 8.80409289E+00 8.09427218E-03-2.85843274E-06 4.53369754E-10-2.66980707E-14    2
-1.98512174E+04-2.17000591E+01 2.83880024E+00 1.86096249E-02-8.48165412E-06    3
 1.00387451E-09 1.71612429E-13-1.74033753E+04 1.16092433E+01                   4
CH3O2      1/14/ 5 THERMC   1H   3O   2    0G   300.000  5000.000 1365.000    11
 6.34718801E+00 7.92089358E-03-2.76601913E-06 4.35360631E-10-2.54984762E-14    2
-1.83436055E+03-7.42552545E+00 3.80497590E+00 9.80784660E-03-3.90940624E-07    3
-2.23072602E-09 6.43310820E-13-4.55625796E+02 7.81789100E+00                   4
CH4       29/11/04      H   4C   1    0    0G   300.000  5000.000 1462.000     1
 4.09617653E+00 7.44330845E-03-2.63871900E-06 4.19577604E-10-2.47508050E-14    2
-1.13835704E+04-4.67561383E+00 3.72113020E+00-2.50293289E-03 1.90246534E-05    3
-1.46871253E-08 3.43791152E-12-1.01424099E+04 1.22776596E+00                   4
CH3                     C   1H   3    0    0G   300.000  5000.000 1389.000    01
 3.51281376E+00 5.11412613E-03-1.67632050E-06 2.52495174E-10-1.43302923E-14    2
 1.61238027E+04 1.62436112E+00 3.43858162E+00 4.07752664E-03 3.19830994E-07    3
-9.47669390E-10 2.21828166E-13 1.63164018E+04 2.52807406E+00                   4
CH2               120186C   1H   2          G  0250.00   4000.00  1000.00      1
 0.03636408E+02 0.01933057E-01-0.01687016E-05-0.01009899E-08 0.01808256E-12    2
 0.04534134E+06 0.02156561E+02 0.03762237E+02 0.01159819E-01 0.02489585E-05    3
 0.08800836E-08-0.07332435E-11 0.04536791E+06 0.01712578E+02                   4
CH2(S)             31287C   1H   2          G  0300.00   4000.00  1000.00      1
 0.03552889E+02 0.02066788E-01-0.01914116E-05-0.01104673E-08 0.02021350E-12    2
 0.04984975E+06 0.01686570E+02 0.03971265E+02-0.01699089E-02 0.01025369E-04    3
 0.02492551E-07-0.01981266E-10 0.04989368E+06 0.05753207E+00                   4
C                       C   1               G  0300.00   5000.00  1000.00      1
 0.02602087E+02-0.01787081E-02 0.09087041E-06-0.01149933E-09 0.03310844E-14    2
 0.08542154E+06 0.04195177E+02 0.02498585E+02 0.08085777E-03-0.02697697E-05    3
 0.03040729E-08-0.01106652E-11 0.08545878E+06 0.04753459E+02                   4
CH                121286C   1H   1          G  0300.00   5000.00  1000.00      1
 0.02196223E+02 0.02340381E-01-0.07058201E-05 0.09007582E-09-0.03855040E-13    2
 0.07086723E+06 0.09178373E+02 0.03200202E+02 0.02072876E-01-0.05134431E-04    3
 0.05733890E-07-0.01955533E-10 0.07045259E+06 0.03331588E+02                   4
C2H6       8/ 4/ 4 THERMC   2H   6    0    0G   300.000  5000.000 1383.000    11
 6.05972630E+00 1.30382837E-02-4.48103942E-06 6.97762095E-10-4.05606353E-14    2
-1.35751226E+04-1.28608001E+01 4.78623203E-02 2.40569127E-02-1.15155912E-05    3
 2.48666238E-09-1.78343944E-13-1.10923014E+04 2.06544071E+01                   4
C2H5       8/ 4/ 4 THERMC   2H   5    0    0G   300.000  5000.000 1387.000    11
 5.88784390E+00 1.03076793E-02-3.46844396E-06 5.32499257E-10-3.06512651E-14    2
 1.15065499E+04-8.49651771E+00 1.32730217E+00 1.76656753E-02-6.14926558E-06    3
-3.01143466E-10 4.38617775E-13 1.34284028E+04 1.71789216E+01                   4
C2H4      10/ 4/ 5 THERMC   2H   4    0    0G   300.000  5000.000 1395.000    01
 5.22176372E+00 8.96137303E-03-3.04868886E-06 4.71465524E-10-2.72739592E-14    2
 3.60389679E+03-7.47789234E+00 2.33879687E-01 1.96334647E-02-1.16833214E-05    3
 3.64246453E-09-4.77442715E-13 5.46489338E+03 1.97084228E+01                   4
C2H3      10/ 4/ 5 THERMC   2H   3    0    0G   300.000  5000.000 1395.000    01
 5.07331248E+00 6.58316278E-03-2.23762924E-06 3.45803379E-10-1.99940490E-14    2
 3.37234748E+04-3.39792712E+00 1.25329724E+00 1.56258370E-02-1.07803879E-05    3
 4.18054634E-09-7.01360362E-13 3.50734773E+04 1.71341661E+01                   4
C2H2      10/ 4/ 5 THERMC   2H   2    0    0G   300.000  5000.000 1407.000    01
 4.98265164E+00 4.25992930E-03-1.37483523E-06 2.04717964E-10-1.15191740E-14    2
 2.52697118E+04-5.81321385E+00 2.06742667E+00 1.46568506E-02-1.52947063E-05    3
 8.30965761E-09-1.72932175E-12 2.59578589E+04 8.62758672E+00                   4
C2H       10/ 4/ 5 THERMC   2H   1    0    0G   300.000  5000.000 1361.000    01
 4.66893822E+00 2.01284720E-03-7.01828634E-07 1.10347228E-10-6.45790465E-15    2
 6.60310696E+04-2.25424693E+00 4.27708350E+00 1.74130076E-03 7.31180206E-07    3
-9.71827901E-10 2.36956727E-13 6.63125955E+04 3.16341916E-01                   4
CH3CHO     8/10/ 4 THERMC   2H   4O   1    0G   300.000  5000.000 1377.000    11
 6.98518866E+00 9.67897787E-03-3.31841954E-06 5.16025901E-10-2.99725903E-14    2
-2.39807279E+04-1.27484852E+01 1.77060035E+00 1.84475161E-02-7.24138162E-06    3
 2.34364561E-10 3.35543891E-13-2.18078850E+04 1.65023437E+01                   4
CH3CO      8/10/ 4 THERMC   2H   3O   1    0G   300.000  5000.000 1371.000    11
 6.56682466E+00 7.55308669E-03-2.59966784E-06 4.05334994E-10-2.35876164E-14    2
-4.76690401E+03-8.83301965E+00 2.52884150E+00 1.37152173E-02-4.28607476E-06    3
-7.71684278E-10 4.83836380E-13-3.02546532E+03 1.40340315E+01                   4
CH2CHO     8/10/ 4 THERMC   2H   3O   1    0G   300.000  5000.000 1388.000    11
 7.54145790E+00 6.82297125E-03-2.36938607E-06 3.71633517E-10-2.17160048E-14    2
-2.61437239E+03-1.62602766E+01 1.47616956E+00 2.08974186E-02-1.50123552E-05    3
 5.62967382E-09-8.76624470E-13-4.82050510E+02 1.63756465E+01                   4
CH2CO             121686C   2H   2O   1     G  0300.00   5000.00  1000.00      1
 0.06038817E+02 0.05804840E-01-0.01920954E-04 0.02794485E-08-0.01458868E-12    2
-0.08583402E+05-0.07657581E+02 0.02974971E+02 0.01211871E+00-0.02345046E-04    3
-0.06466685E-07 0.03905649E-10-0.07632637E+05 0.08673553E+02                   4
HCCO               32387H   1C   2O   1     G  0300.00   4000.00  1000.00      1
 0.06758073E+02 0.02000400E-01-0.02027607E-05-0.01041132E-08 0.01965165E-12    2
 0.01901513E+06-0.09071262E+02 0.05047965E+02 0.04453478E-01 0.02268283E-05    3
-0.01482095E-07 0.02250742E-11 0.01965892E+06 0.04818439E+01                   4
CH3CO3H    6/26/95 THERMC   2H   4O   3    0G   300.000  5000.000 1391.000    31
 1.25060485E+01 9.47789695E-03-3.30402246E-06 5.19630793E-10-3.04233568E-14    2
-4.59856703E+04-3.79195947E+01 2.24135876E+00 3.37963514E-02-2.53887482E-05    3
 9.67583587E-09-1.49266157E-12-4.24677831E+04 1.70668133E+01                   4
CH3CO3     4/ 3/ 0 THERMC   2H   3O   3    0G   300.000  5000.000 1391.000    21
 1.12522498E+01 8.33652672E-03-2.89014530E-06 4.52781734E-10-2.64354456E-14    2
-2.60238584E+04-2.96370457E+01 3.60373432E+00 2.70080341E-02-2.08293438E-05    3
 8.50541104E-09-1.43846110E-12-2.34205171E+04 1.12014914E+01                   4
CH3CO2     2/14/95 THERMC   2H   3O   2    0G   300.000  5000.000 1395.000    11
 8.54059736E+00 8.32951214E-03-2.84722010E-06 4.41927196E-10-2.56373394E-14    2
-2.97290678E+04-2.03883545E+01 1.37440768E+00 2.49115604E-02-1.74308894E-05    3
 6.24799508E-09-9.09516835E-13-2.72330150E+04 1.81405454E+01                   4
C2H5OH     8/ 9/ 4 THERMC   2H   6O   1    0G   300.000  5000.000 1395.000    21
 8.31742137E+00 1.29603294E-02-4.39286497E-06 6.77734995E-10-3.91448231E-14    2
-3.25219715E+04-1.96502783E+01 1.79106094E-01 3.09060081E-02-1.93596697E-05    3
 6.31830859E-09-8.53166875E-13-2.95670605E+04 2.44715919E+01                   4
C2H5O      8/ 9/ 4 THERMC   2H   5O   1    0G   300.000  5000.000 1393.000    11
 8.23717244E+00 1.10885879E-02-3.78808372E-06 5.87613473E-10-3.40712889E-14    2
-6.22948597E+03-1.93190543E+01 2.87429022E-01 2.86500918E-02-1.83857008E-05    3
 6.03096179E-09-8.04562643E-13-3.35717377E+03 2.37513898E+01                   4
SC2H4OH    8/ 9/ 4 THERMC   2H   5O   1    0G   300.000  5000.000 1397.000    21
 8.34980768E+00 1.03718068E-02-3.49683481E-06 5.37524748E-10-3.09661005E-14    2
-1.10556188E+04-1.81354112E+01 1.61103852E+00 2.63511867E-02-1.82941500E-05    3
 6.91243160E-09-1.10384057E-12-8.71494725E+03 1.80114775E+01                   4
C2H5O2H    1/14/ 5 THERMC   2H   6O   2    0G   300.000  5000.000 1391.000    31
 1.12305737E+01 1.20482120E-02-3.96730201E-06 6.00754632E-10-3.42657803E-14    2
-2.47977531E+04-3.25607232E+01 1.57329011E+00 3.52379996E-02-2.53203993E-05    3
 9.56802476E-09-1.48167375E-12-2.15278368E+04 1.90472032E+01                   4
C2H5O2     1/14/ 5 THERMC   2H   5O   2    0G   300.000  5000.000 1387.000    21
 8.77641329E+00 1.18767163E-02-3.87683050E-06 5.83210754E-10-3.31006724E-14    2
-6.78748703E+03-1.83119972E+01 2.58630333E+00 2.61836362E-02-1.68306193E-05    3
 6.08749295E-09-9.57302040E-13-4.58588992E+03 1.50486289E+01                   4
C2H3O1-2   4/ 3/ 0 THERMC   2H   3O   1     G   300.000  5000.000 1492.000    01
 6.88486471E+00 6.94720501E-03-2.23214698E-06 3.32190767E-10-1.87124555E-14    2
 1.26442200E+04-1.23842570E+01-1.62965122E+00 2.93455486E-02-2.43737550E-05    3
 1.00522325E-08-1.61259036E-12 1.52459425E+04 3.22782741E+01                   4
CH3COCH3   8/30/ 4 THERMC   3H   6O   1    0G   300.000  5000.000 1382.000    21
 9.62674379E+00 1.45519245E-02-4.97749457E-06 7.72794591E-10-4.48367165E-14    2
-3.11862263E+04-2.61613449E+01 1.24527408E+00 2.99760255E-02-1.40026661E-05    3
 2.16453512E-09 1.27637295E-13-2.78348727E+04 2.03682615E+01                   4
CH3COCH2   8/30/ 4 THERMC   3H   5O   1    0G   300.000  5000.000 1388.000    21
 1.08892477E+01 1.11540675E-02-3.85516785E-06 6.02834048E-10-3.51533449E-14    2
-1.00741464E+04-3.18043322E+01 1.22337251E+00 3.24546742E-02-2.13542518E-05    3
 6.96777735E-09-8.99160299E-13-6.59419324E+03 2.05537233E+01                   4
CH3COCH2O2  2/14/95     C   3H   5O   3     G   300.000  5000.000 1379.00     31
 1.27690342E+01 1.42554828E-02-4.92821461E-06 7.70448921E-10-4.49110534E-14    2
-2.34798669E+04-3.27155799E+01 5.95535468E+00 2.70255205E-02-1.37385031E-05    3
 3.53735851E-09-4.03922557E-13-2.06679464E+04 5.21436049E+00                   4
CH3COCH2O2H 2/14/95     C   3H   6O   3    0G   300.000  5000.000 1381.00     41
 1.52372810E+01 1.44114651E-02-5.01290009E-06 7.87071229E-10-4.60225784E-14    2
-4.27564444E+04-4.77383784E+01 4.94789761E+00 3.60474432E-02-2.21719933E-05    3
 6.98296874E-09-9.21269260E-13-3.88687178E+04 8.49926130E+00                   4
CH3COCH2O  4/ 3/ 0 THERMC   3H   5O   2     G   300.000  5000.000 1370.000    21
 1.14637586E+01 1.32124342E-02-4.56580495E-06 7.13897538E-10-4.16281047E-14    2
-2.23833017E+04-3.15127868E+01 3.72927689E+00 2.63943697E-02-1.09796486E-05    3
 8.58185303E-10 3.39474590E-13-1.91551565E+04 1.18505335E+01                   4
C2H3CHO    6/26/95 THERMC   3H   4O   1     G   300.000  5000.000 1393.000    11
 1.04184959E+01 9.48963321E-03-3.29310529E-06 5.16279203E-10-3.01587291E-14    2
-1.49630281E+04-3.07235061E+01 2.92355162E-01 3.54321417E-02-2.94936324E-05    3
 1.28100124E-08-2.26144108E-12-1.16521584E+04 2.28878280E+01                   4
C2H3CO     4/ 3/ 0 THERMC   3H   3O   1     G   300.000  5000.000 1402.000    01
 9.37467676E+00 7.91296900E-03-2.67198280E-06 4.11115430E-10-2.36978981E-14    2
 1.92969514E+03-2.40892696E+01 1.36242013E+00 3.15273972E-02-3.00218935E-05    3
 1.48167112E-08-2.87971530E-12 4.25770215E+03 1.72626546E+01                   4
C2H5CHO    8/10/ 4 THERMC   3H   6O   1    0G   300.000  5000.000 1375.000    21
 8.87216223E+00 2.01710762E-02-8.06487647E-06 1.37617784E-09-8.48922325E-14    2
-2.83848527E+04-2.35069163E+01 5.93107530E+00 8.87943855E-03 2.03764325E-05    3
-1.80149348E-08 4.14085655E-12-2.51377751E+04-5.87019974E-01                   4
C2H5CO     8/10/ 4 THERMC   3H   5O   1    0G   300.000  5000.000 1362.000    21
 1.00147418E+01 1.61527961E-02-6.62976122E-06 1.15290667E-09-7.21263458E-14    2
-1.00430305E+04-2.88570933E+01 8.35352246E+00-4.08739727E-03 3.64217954E-05    3
-2.72457713E-08 6.06440266E-12-6.58577307E+03-1.05948346E+01                   4
CH3OCH3    7/20/98 THERMC   2H   6O   1    0G   300.000  5000.000 1368.000    21
 8.27745836E+00 1.32135539E-02-4.53264362E-06 7.05316507E-10-4.09933283E-14    2
-2.61982700E+04-2.15190894E+01 1.50763450E+00 2.39914228E-02-8.68910500E-06    3
-9.66835762E-11 4.89319361E-13-2.32810894E+04 1.67317297E+01                   4
CH3OCO    11/14/92 THERMC   2H   3O   2     G   300.000  5000.000 2022.000    11
 7.93872241E+00 9.83179392E-03-3.62304518E-06 5.93018825E-10-3.57358429E-14    2
-2.72284932E+04-1.32899508E+01 3.40389162E+00 1.73179494E-02-6.45033782E-06    3
-4.33768471E-11 3.36254887E-13-2.54267271E+04 1.20702852E+01                   4
C3H8       8/ 4/ 4 THERMC   3H   8    0    0G   300.000  5000.000 1387.000    21
 9.31450083E+00 1.73577154E-02-5.94222386E-06 9.22939762E-10-5.35576604E-14    2
-1.77234234E+04-2.89241517E+01-3.08230087E-01 3.65331801E-02-1.97610926E-05    3
 5.15283344E-09-5.06336649E-13-1.39792198E+04 2.40478733E+01                   4
IC3H7      8/ 4/ 4 THERMC   3H   7    0    0G   300.000  5000.000 1373.000    21
 8.14705217E+00 1.58727106E-02-5.44611541E-06 8.47207689E-10-4.92178752E-14    2
 6.18073367E+03-1.91980850E+01 1.63417589E+00 2.40171372E-02-4.72808067E-06    3
-3.24354603E-09 1.23539044E-12 9.20752889E+03 1.83848082E+01                   4
NC3H7      8/ 4/ 4 THERMC   3H   7    0    0G   300.000  5000.000 1386.000    21
 8.88635047E+00 1.52273279E-02-5.21905860E-06 8.11259208E-10-4.71028059E-14    2
 7.34671584E+03-2.30727791E+01 4.74365329E-01 3.19190367E-02-1.71909780E-05    3
 4.45927887E-09-4.36675398E-13 1.06314565E+04 2.32670929E+01                   4
C3H6      10/23/ 5 THERMC   3H   6    0    0G   300.000  5000.000 1388.000    11
 8.01595958E+00 1.37023634E-02-4.66249733E-06 7.21254402E-10-4.17370126E-14    2
-1.76749303E+03-2.00160668E+01 3.94615444E-01 2.89107662E-02-1.54886808E-05    3
 3.88814209E-09-3.37890352E-13 1.17760132E+03 2.19003736E+01                   4
C3H5-A    10/23/ 5 THERMC   3H   5    0    0G   300.000  5000.000 1397.000    01
 8.45883958E+00 1.12695483E-02-3.83792864E-06 5.94059119E-10-3.43918030E-14    2
 1.64683289E+04-2.32704266E+01-5.29131958E-01 3.34559100E-02-2.53401027E-05    3
 1.02865754E-08-1.73258340E-12 1.94941423E+04 2.46172315E+01                   4
C3H5-S    10/23/ 5 THERMC   3H   5    0    0G   300.000  5000.000 1390.000    11
 7.88765879E+00 1.13012591E-02-3.84213130E-06 5.93982677E-10-3.43567175E-14    2
 2.83484913E+04-1.74291589E+01 1.32807335E+00 2.53107914E-02-1.51530439E-05    3
 4.74345565E-09-6.24666084E-13 3.07981100E+04 1.83328787E+01                   4
C3H5-T    10/23/ 5 THERMC   3H   5    0    0G   300.000  5000.000 1382.000    11
 7.37492443E+00 1.17510061E-02-4.00021283E-06 6.18947395E-10-3.58215018E-14    2
 2.73982108E+04-1.43478655E+01 2.17916644E+00 2.03826623E-02-7.91413834E-06    3
 4.76906187E-10 2.70398536E-13 2.96002535E+04 1.48785684E+01                   4
C3H4-P            101993H   4C   3          G  0300.00   4000.00  1400.00      1
 0.09768102E+02 0.05219151E-01-0.03753140E-05-0.02992191E-08 0.05107878E-12    2
 0.01860277E+06-0.03020678E+03 0.03029730E+02 0.01498961E+00-0.01398500E-04    3
-0.03969619E-07 0.01388217E-10 0.02148408E+06 0.08004594E+02                   4
C3H4-A            101993H   4C   3          G  0300.00   4000.00  1400.00      1
 0.09776256E+02 0.05302138E-01-0.03701118E-05-0.03026386E-08 0.05089581E-12    2
 0.01954972E+06-0.03077061E+03 0.02539831E+02 0.01633437E+00-0.01764950E-04    3
-0.04647365E-07 0.01729131E-10 0.02251243E+06 0.09935702E+02                   4
C3H3               82489C   3H   3          G  0300.00   4000.00  1000.00      1
 0.08831047E+02 0.04357195E-01-0.04109067E-05-0.02368723E-08 0.04376520E-12    2
 0.03847420E+06-0.02177919E+03 0.04754200E+02 0.01108028E+00 0.02793323E-05    3
-0.05479212E-07 0.01949629E-10 0.03988883E+06 0.05854549E+01                   4
C3H2              102193H   2C   3          G  0150.00   4000.00  1000.00      1
 0.07670981E+02 0.02748749E-01-0.04370943E-05-0.06455599E-09 0.01663887E-12    2
 0.06259722E+06-0.01236890E+03 0.03166714E+02 0.02482572E+00-0.04591637E-03    3
 0.04268019E-06-0.01482152E-09 0.06350421E+06 0.08869446E+02                   4
C3H5O      7/20/95 THERMC   3H   5O   1    0G   300.000  5000.000 1380.000    11
 1.02551752E+01 1.14983720E-02-3.84645659E-06 5.88910346E-10-3.38557923E-14    2
 6.26560810E+03-2.77655042E+01 1.19822582E+00 3.05579837E-02-1.80630276E-05    3
 4.86150033E-09-4.19854562E-13 9.58217784E+03 2.15566221E+01                   4
C3H6OOH1-2 7/19/ 0 THERMC   3H   7O   2    0G   300.000  5000.000 1402.000    41
 1.24605763E+01 1.58889526E-02-5.32742106E-06 8.15818791E-10-4.68723250E-14    2
-4.20305196E+03-3.23858947E+01 2.87774562E+00 3.74166999E-02-2.36058063E-05    3
 7.79930860E-09-1.06042562E-12-7.82368119E+02 1.93941340E+01                   4
C3H6OOH1-3 7/19/ 0 THERMC   3H   7O   2    0G   300.000  5000.000 1384.000    41
 1.46881564E+01 1.49941200E-02-5.24056505E-06 8.25462711E-10-4.83758952E-14    2
-4.77342863E+03-4.77984492E+01 1.88331465E+00 4.40156051E-02-3.07858462E-05    3
 1.13214862E-08-1.75323184E-12-1.68779168E+02 2.14040621E+01                   4
C3H6OOH2-1 7/19/ 0 THERMC   3H   7O   2    0G   300.000  5000.000 1407.000    41
 1.42163221E+01 1.43382450E-02-4.78004477E-06 7.29133134E-10-4.17761973E-14    2
-5.67381620E+03-4.35770997E+01 2.09193950E+00 4.69220394E-02-3.90280831E-05    3
 1.72381453E-08-3.07968979E-12-1.89377918E+03 2.00178282E+01                   4
C3H6OOH2-1O2 7/19/ 0 TRMC   3H   7O   4    0G   300.000  5000.000 1386.000    51
 1.91759159E+01 1.59857013E-02-5.61306378E-06 8.86880495E-10-5.20877040E-14    2
-2.64412115E+04-6.77512936E+01 2.65196584E+00 5.74638149E-02-4.72190867E-05    3
 2.05591557E-08-3.68787387E-12-2.08829371E+04 2.01547955E+01                   4
NC3H7O2H   7/19/ 0 THERMC   3H   8O   2    0G   300.000  5000.000 1385.000    41
 1.50895501E+01 1.71714707E-02-5.98498879E-06 9.40964412E-10-5.50728381E-14    2
-2.98352445E+04-5.28090166E+01 1.13366696E+00 4.84919904E-02-3.31801457E-05    3
 1.19308278E-08-1.80905372E-12-2.47845493E+04 2.27256088E+01                   4
NC3H7O2    7/19/ 0 THERMC   3H   7O   2    0G   300.000  5000.000 1384.000    31
 1.26327059E+01 1.69910726E-02-5.88866873E-06 9.22195396E-10-5.38230675E-14    2
-1.19194652E+04-3.85349297E+01 2.10731492E+00 3.96164986E-02-2.49491599E-05    3
 8.59450300E-09-1.31240330E-12-7.93745567E+03 1.89082748E+01                   4
IC3H7O2    7/19/ 0 THERMC   3H   7O   2    0G   300.000  5000.000 1388.000    31
 1.32493493E+01 1.64082190E-02-5.67432062E-06 8.87336340E-10-5.17361535E-14    2
-1.44109855E+04-4.29066213E+01 1.49941639E+00 4.43081205E-02-3.22414456E-05    3
 1.29687136E-08-2.23370569E-12-1.02587980E+04 2.02336490E+01                   4
NC3H7O     8/ 9/ 4 THERMC   3H   7O   1    0G   300.000  5000.000 1398.000    21
 1.14771726E+01 1.54936722E-02-5.29459014E-06 8.21476970E-10-4.76382658E-14    2
-1.03998532E+04-3.53681150E+01-2.16869993E-01 4.14789744E-02-2.68724173E-05    3
 8.76685704E-09-1.13947550E-12-6.21358042E+03 2.78942641E+01                   4
IC3H7O     8/ 9/ 4 THERMC   3H   7O   1    0G   300.000  5000.000 1393.000    21
 1.23135031E+01 1.38062606E-02-4.91585531E-06 8.21075632E-10-5.07493001E-14    2
-1.24717023E+04-4.17270532E+01-8.18260771E-01 4.68807147E-02-3.74369377E-05    3
 1.55917264E-08-2.64308171E-12-8.15153216E+03 2.79483196E+01                   4
C3H6O1-2   1/22/95 THERMC   3H   6O   1    0G   300.000  5000.000 1379.00     41
 1.19825289E+01 1.23964696E-02-4.39113813E-06 6.97911182E-10-4.11585127E-14    2
-1.69739189E+04-4.22894035E+01-1.21988153E+00 4.28578772E-02-3.17530249E-05    3
 1.21763736E-08-1.94154303E-12-1.22953761E+04 2.88467826E+01                   4
C3H6O1-3   1/22/95 THERMC   3H   6O   1    0G   300.000  5000.000 2035.000    41
 1.02363953E+01 1.50514705E-02-5.63636534E-06 9.32463455E-10-5.66102441E-14    2
-1.46212029E+04-3.36724732E+01-2.75717996E+00 4.26371602E-02-2.56831231E-05    3
 6.62981208E-09-5.31193325E-13-1.00990375E+04 3.67181804E+01                   4
C3KET21    7/19/ 0 THERMC   3H   6O   3    0G   300.000  5000.000 1371.000    41
 1.56377776E+01 1.44059342E-02-5.08808082E-06 8.07076119E-10-4.75295650E-14    2
-4.30657975E+04-5.13105869E+01 4.55686367E+00 3.57076837E-02-1.94712054E-05    3
 4.70695431E-09-3.69753807E-13-3.86710975E+04 9.97761694E+00                   4
C3H6OH     1/ 7/98 THERMC   3H   7O   1     G   300.000  5000.000 1674.000    31
 9.31287816E+00 1.67579212E-02-5.75555480E-06 9.00584362E-10-5.26566836E-14    2
-1.20169635E+04-1.95011064E+01 1.20494302E+00 3.30857885E-02-1.63893637E-05    3
 3.18103918E-09-6.84229288E-14-9.12961720E+03 2.47155202E+01                   4
HOC3H6O2   1/ 7/98 THERMC   3H   7O   3     G   300.000  5000.000 1397.000    41
 1.42691004E+01 1.71837825E-02-5.83419536E-06 9.00994191E-10-5.20716210E-14    2
-3.14501750E+04-4.15295035E+01 3.06954289E+00 4.43105640E-02-3.18636260E-05    3
 1.26409287E-08-2.12751901E-12-2.75893676E+04 1.83891218E+01                   4
CH3CHCO   03/03/95 THERMC   3H   4O   1    0G   300.000  5000.000 1400.00     41
 1.00219123E+01 9.56966300E-03-3.26221644E-06 5.05231706E-10-2.92593257E-14    2
-1.42482738E+04-2.77829973E+01 1.48380119E+00 3.22203013E-02-2.70250033E-05    3
 1.20499164E-08-2.18365931E-12-1.15276540E+04 1.71552068E+01                   4
C4H10      8/ 4/ 4 THERMC   4H  10    0    0G   300.000  5000.000 1392.000    31
 1.24940183E+01 2.17726258E-02-7.44272215E-06 1.15487023E-09-6.69712949E-14    2
-2.18403437E+04-4.45558921E+01-4.55756824E-01 4.80323389E-02-2.65497552E-05    3
 6.92544700E-09-6.38317504E-13-1.68960904E+04 2.64870966E+01                   4
C4H8-1     6/29/ 4 THERMC   4H   8    0    0G   300.000  5000.000 1391.000    21
 1.13456574E+01 1.80843428E-02-6.17276514E-06 9.56925815E-10-5.54586212E-14    2
-5.88659450E+03-3.64627206E+01-8.33377133E-01 4.54141123E-02-2.97609030E-05    3
 1.03518354E-08-1.51975733E-12-1.49161811E+03 2.94327905E+01                   4
PC4H9      8/ 4/ 4 THERMC   4H   9    0    0G   300.000  5000.000 1391.000    31
 1.20779744E+01 1.96264778E-02-6.71302199E-06 1.04206424E-09-6.04469282E-14    2
 3.22550473E+03-3.87719384E+01 3.20730933E-01 4.34654454E-02-2.40584970E-05    3
 6.28245308E-09-5.80113166E-13 7.71490893E+03 2.57301085E+01                   4
SC4H9      8/ 4/ 4 THERMC   4H   9    0    0G   300.000  5000.000 1381.000    31
 1.16934304E+01 1.96402287E-02-6.65306517E-06 1.02631895E-09-5.92826294E-14    2
 1.96382429E+03-3.61626672E+01 8.49159986E-01 3.82085320E-02-1.49626797E-05    3
 2.04499211E-10 8.24254437E-13 6.38832956E+03 2.44466606E+01                   4
C4H71-1    4/ 2/97 THERMC   4H   7    0    0G   300.000  5000.000 1393.000    21
 1.12162042E+01 1.56658034E-02-5.34224661E-06 8.27633431E-10-4.79428797E-14    2
 2.41404271E+04-3.38119007E+01 1.19943124E-01 4.15804401E-02-2.89254150E-05    3
 1.08174803E-08-1.70622296E-12 2.80390734E+04 2.58581923E+01                   4
C4H71-2    4/ 2/97 THERMC   4H   7    0    0G   300.000  5000.000 1389.000    21